Version 4
SHEET 1 880 680
WIRE -208 -48 -208 -64
WIRE 80 48 48 48
WIRE 240 64 192 64
WIRE 80 80 48 80
WIRE 384 80 352 80
WIRE -80 96 -80 80
WIRE 240 96 208 96
WIRE 272 208 240 208
WIRE 400 224 384 224
WIRE 272 240 240 240
WIRE 400 256 400 224
WIRE 416 256 400 256
WIRE 560 272 528 272
WIRE -160 288 -160 272
WIRE 416 288 400 288
WIRE 272 304 240 304
WIRE 400 320 400 288
WIRE 400 320 384 320
WIRE 272 336 240 336
FLAG 192 64 D
FLAG 240 240 D
FLAG 48 48 A
FLAG 240 336 A
FLAG 48 80 B
FLAG 240 304 B
FLAG 208 96 Cin
FLAG 240 208 Cin
FLAG 384 80 S
FLAG 560 272 Cout
FLAG -208 32 0
FLAG -208 -64 A
FLAG -80 176 0
FLAG -80 80 B
FLAG -160 368 0
FLAG -160 272 Cin
SYMBOL 74hct86 128 0 R0
SYMATTR InstName U1
SYMBOL 74hct86 288 16 R0
SYMATTR InstName U2
SYMBOL 74hct08 320 160 R0
SYMATTR InstName U3
SYMBOL 74hct08 320 256 R0
SYMATTR InstName U4
SYMBOL 74hct32 464 208 R0
SYMATTR InstName U5
SYMBOL voltage -208 -64 R0
WINDOW 3 24 96 Left 1
WINDOW 123 0 0 Left 0
WINDOW 39 0 0 Left 0
SYMATTR Value PULSE(5 0 0 1p 1p 4u 8u)
SYMATTR InstName V1
SYMBOL voltage -80 80 R0
WINDOW 3 -152 123 Left 1
WINDOW 123 0 0 Left 0
WINDOW 39 0 0 Left 0
SYMATTR Value PULSE(5 0 0 1p 1p 2u 4u)
SYMATTR InstName V2
SYMBOL voltage -160 272 R0
WINDOW 3 -54 122 Left 1
WINDOW 123 0 0 Left 0
WINDOW 39 0 0 Left 0
SYMATTR Value PULSE(5 0 0 1p 1p 1u 2u)
SYMATTR InstName V3
TEXT 520 320 Left 2 !.tran 8u
TEXT 440 408 Left 2 !.include 74hct.lib
TEXT 440 -32 Left 2 ;Saibaba Alapati\n2019A3PS0361H
TEXT 136 -16 Left 2 ;FULL ADDER
