Version 4
SHEET 1 880 680
WIRE 48 96 48 80
WIRE 224 112 192 112
WIRE 368 128 336 128
WIRE 224 144 192 144
WIRE 48 224 48 208
WIRE 224 224 192 224
WIRE 368 240 336 240
WIRE 224 256 192 256
FLAG 48 176 0
FLAG 48 80 A
FLAG 192 112 A
FLAG 192 224 A
FLAG 48 304 0
FLAG 48 208 B
FLAG 192 144 B
FLAG 192 256 B
FLAG 368 128 S
FLAG 368 240 C
SYMBOL 74hct86 272 64 R0
SYMATTR InstName U1
SYMBOL 74hct08 272 176 R0
SYMATTR InstName U2
SYMBOL voltage 48 80 R0
WINDOW 3 24 96 Left 0
WINDOW 123 0 0 Left 0
WINDOW 39 0 0 Left 0
SYMATTR Value PULSE(5 0 0 1p 1p 2u 4u)
SYMATTR InstName V1
SYMBOL voltage 48 208 R0
WINDOW 3 24 96 Left 0
WINDOW 123 0 0 Left 0
WINDOW 39 0 0 Left 0
SYMATTR Value PULSE(5 0 0 1p 1p 1u 2u)
SYMATTR InstName V2
TEXT 328 80 Left 2 !.include 74hct.lib
TEXT 376 272 Left 2 !.tran 4u
TEXT 336 192 Left 2 ;Saibaba Alapati
TEXT 208 48 Left 2 ;HALF ADDER
