Version 4
SHEET 1 904 680
WIRE -464 -32 -464 -80
WIRE 144 -16 80 -16
WIRE 432 -16 144 -16
WIRE 144 48 144 -16
WIRE 224 48 144 48
WIRE 432 64 336 64
WIRE 144 80 80 80
WIRE 224 80 144 80
WIRE -272 96 -272 80
WIRE -272 128 -272 96
WIRE 144 192 144 80
WIRE 224 192 144 192
WIRE -464 208 -464 192
WIRE 432 208 336 208
WIRE 144 224 80 224
WIRE 224 224 144 224
WIRE -464 240 -464 208
WIRE 144 352 144 224
WIRE 224 352 144 352
WIRE 432 368 336 368
WIRE 224 384 80 384
WIRE -192 432 -192 368
FLAG -464 48 0
FLAG -464 320 0
FLAG -272 208 0
FLAG -192 512 0
FLAG -464 208 B2
FLAG -192 368 B4
FLAG -272 96 B3
FLAG -464 -80 B1
FLAG 80 -16 B1
FLAG 80 80 B2
FLAG 80 224 B3
FLAG 80 384 B4
FLAG 432 -16 G1
FLAG 432 64 G2
FLAG 432 208 G3
FLAG 432 368 G4
SYMBOL 74hct86 272 144 R0
SYMATTR InstName U2
SYMBOL 74hct86 272 304 R0
SYMATTR InstName U3
SYMBOL voltage -464 -48 R0
WINDOW 123 0 0 Left 2
WINDOW 39 0 0 Left 2
SYMATTR InstName V1
SYMATTR Value PULSE(5 0 0 1p 1p 8u 16u)
SYMBOL voltage -464 224 R0
WINDOW 123 0 0 Left 2
WINDOW 39 0 0 Left 2
SYMATTR InstName V2
SYMATTR Value PULSE(5 0 0 1p 1p 4u 8u)
SYMBOL voltage -272 112 R0
WINDOW 123 0 0 Left 2
WINDOW 39 0 0 Left 2
SYMATTR InstName V3
SYMATTR Value PULSE(5 0 0 1p 1p 2u 4u)
SYMBOL voltage -192 416 R0
WINDOW 123 0 0 Left 2
WINDOW 39 0 0 Left 2
SYMATTR InstName V4
SYMATTR Value PULSE(5 0 0 1p 1p 1u 2u)
SYMBOL 74hct86 272 0 R0
SYMATTR InstName U1
TEXT 616 -96 Left 2 !.include 74hct.lib
TEXT -512 536 Left 2 !.tran 16u
TEXT 552 24 Left 2 ;SAIBABA ALAPATI\n2019A3PS0361H
