Version 4
SHEET 1 2120 904
WIRE -96 208 -128 208
WIRE -96 240 -128 240
WIRE 112 240 96 240
WIRE 240 240 224 240
WIRE 592 240 576 240
WIRE 368 256 352 256
WIRE 720 256 704 256
WIRE -96 272 -128 272
WIRE 112 272 96 272
WIRE 240 272 224 272
WIRE 592 272 576 272
WIRE 368 288 368 256
WIRE 720 288 720 256
WIRE 112 304 96 304
WIRE 496 304 480 304
WIRE 512 304 496 304
WIRE 848 304 832 304
WIRE 864 304 848 304
WIRE 112 336 96 336
WIRE 240 352 224 352
WIRE 592 352 576 352
WIRE -96 368 -128 368
WIRE 112 368 96 368
WIRE 368 368 368 320
WIRE 368 368 352 368
WIRE 720 368 720 320
WIRE 720 368 704 368
WIRE -128 384 -128 368
WIRE -128 384 -144 384
WIRE 240 384 224 384
WIRE 592 384 576 384
WIRE -128 400 -128 384
WIRE -96 400 -128 400
WIRE 112 400 96 400
WIRE -128 432 -160 432
WIRE -96 432 -128 432
WIRE 112 432 96 432
WIRE -48 656 -48 624
WIRE 304 656 304 624
WIRE 640 656 640 624
WIRE 992 656 992 624
FLAG -48 624 A
FLAG 304 624 B
FLAG 640 624 Cin
FLAG -48 736 0
FLAG 304 736 0
FLAG 640 736 0
FLAG -128 208 A
FLAG -128 240 B
FLAG -128 272 Cin
FLAG -144 384 0
FLAG 112 240 m1
FLAG 112 272 m2
FLAG 112 304 m3
FLAG 112 336 m4
FLAG 112 368 m5
FLAG 112 400 m6
FLAG 112 432 m7
FLAG 992 736 0
FLAG 224 240 m1
FLAG 224 272 m2
FLAG 224 352 m4
FLAG 224 384 m7
FLAG 496 304 Sum
FLAG 576 240 m3
FLAG 576 272 m5
FLAG 576 352 m6
FLAG 576 384 m7
FLAG 848 304 Cout
FLAG 992 624 K
FLAG -128 432 K
SYMBOL 74hct138 0 144 R0
SYMATTR InstName U1
SYMBOL voltage -48 640 R0
SYMATTR InstName V1
SYMATTR Value PULSE(5 0 0 1p 1p 1u 2u)
SYMBOL voltage 304 640 R0
SYMATTR InstName V2
SYMATTR Value PULSE(5 0 0 1p 1p 2u 4u)
SYMBOL voltage 640 640 R0
SYMATTR InstName V3
SYMATTR Value PULSE(5 0 0 1p 1p 4u 8u)
SYMBOL voltage 992 640 R0
SYMATTR InstName V4
SYMATTR Value 5
SYMBOL 74hct00 288 192 R0
SYMATTR InstName U2
SYMBOL 74hct00 288 304 R0
SYMATTR InstName U3
SYMBOL 74hct32 416 240 R0
SYMATTR InstName U4
SYMBOL 74hct00 640 192 R0
SYMATTR InstName U5
SYMBOL 74hct00 640 304 R0
SYMATTR InstName U6
SYMBOL 74hct32 768 240 R0
SYMATTR InstName U7
TEXT 1064 448 Left 2 !.include 74hct.lib
TEXT 1104 552 Left 2 !.tran 8u
