Version 4
SHEET 1 2120 904
WIRE 176 192 144 192
WIRE 176 224 144 224
WIRE 384 224 368 224
WIRE 752 224 736 224
WIRE 880 240 864 240
WIRE 176 256 144 256
WIRE 384 256 368 256
WIRE 752 256 736 256
WIRE 880 272 880 240
WIRE 384 288 368 288
WIRE 1008 288 992 288
WIRE 1024 288 1008 288
WIRE 384 320 368 320
WIRE 752 336 736 336
WIRE 176 352 144 352
WIRE 384 352 368 352
WIRE 880 352 880 304
WIRE 880 352 864 352
WIRE 144 368 144 352
WIRE 144 368 128 368
WIRE 752 368 736 368
WIRE 144 384 144 368
WIRE 176 384 144 384
WIRE 384 384 368 384
WIRE 144 416 112 416
WIRE 176 416 144 416
WIRE 384 416 368 416
WIRE -48 656 -48 624
WIRE 304 656 304 624
WIRE 640 656 640 624
WIRE 992 656 992 624
FLAG -48 624 A
FLAG 304 624 B
FLAG 640 624 C
FLAG -48 736 0
FLAG 304 736 0
FLAG 640 736 0
FLAG 144 192 A
FLAG 144 224 B
FLAG 144 256 C
FLAG 128 368 0
FLAG 384 224 m1
FLAG 384 256 m2
FLAG 384 288 m3
FLAG 384 320 m4
FLAG 384 352 m5
FLAG 384 384 m6
FLAG 384 416 m7
FLAG 992 736 0
FLAG 992 624 K
FLAG 144 416 K
FLAG 736 224 m3
FLAG 736 256 m5
FLAG 736 336 m6
FLAG 736 368 m7
FLAG 1008 288 Maj
SYMBOL 74hct138 272 128 R0
SYMATTR InstName U1
SYMBOL voltage -48 640 R0
SYMATTR InstName V1
SYMATTR Value PULSE(5 0 0 1p 1p 1u 2u)
SYMBOL voltage 304 640 R0
SYMATTR InstName V2
SYMATTR Value PULSE(5 0 0 1p 1p 2u 4u)
SYMBOL voltage 640 640 R0
SYMATTR InstName V3
SYMATTR Value PULSE(5 0 0 1p 1p 4u 8u)
SYMBOL voltage 992 640 R0
SYMATTR InstName V4
SYMATTR Value 5
SYMBOL 74hct00 800 176 R0
SYMATTR InstName U14
SYMBOL 74hct00 800 288 R0
SYMATTR InstName U15
SYMBOL 74hct32 928 224 R0
SYMATTR InstName U16
TEXT 992 416 Left 2 !.include 74hct.lib
TEXT 1000 480 Left 2 !.tran 8u
