Version 4
SHEET 1 2120 904
WIRE 176 32 144 32
WIRE 544 32 512 32
WIRE 176 64 144 64
WIRE 544 64 512 64
WIRE 176 96 144 96
WIRE 544 96 512 96
WIRE 160 192 144 192
WIRE 176 192 160 192
WIRE 512 192 496 192
WIRE 544 192 512 192
WIRE 176 224 144 224
WIRE 512 224 512 192
WIRE 544 224 512 224
WIRE 144 256 144 224
WIRE 176 256 144 256
WIRE 512 256 512 224
WIRE 544 256 512 256
WIRE 160 288 160 192
WIRE 176 288 160 288
WIRE 384 288 368 288
WIRE 544 288 528 288
WIRE 752 288 736 288
WIRE 144 320 144 256
WIRE 176 320 144 320
WIRE 384 320 368 320
WIRE 512 320 512 256
WIRE 544 320 512 320
WIRE 752 320 736 320
WIRE 160 352 160 288
WIRE 176 352 160 352
WIRE 528 352 528 288
WIRE 544 352 528 352
WIRE 160 384 160 352
WIRE 176 384 160 384
WIRE 528 384 528 352
WIRE 544 384 528 384
WIRE 144 400 144 320
WIRE 144 400 112 400
WIRE 144 416 144 400
WIRE 176 416 144 416
WIRE 528 416 528 384
WIRE 528 416 496 416
WIRE 544 416 528 416
WIRE -48 656 -48 624
WIRE 304 656 304 624
WIRE 640 656 640 624
WIRE 992 656 992 624
FLAG -48 624 A
FLAG 304 624 B
FLAG 640 624 Cin
FLAG -48 736 0
FLAG 304 736 0
FLAG 640 736 0
FLAG 992 736 0
FLAG 144 32 A
FLAG 144 64 B
FLAG 144 96 Cin
FLAG 992 624 K
FLAG 176 0 0
FLAG 144 192 0
FLAG 112 400 K
FLAG 384 288 Sum
FLAG 384 320 Sum_bar
FLAG 512 32 A
FLAG 512 64 B
FLAG 512 96 Cin
FLAG 544 0 0
FLAG 752 288 Cout
FLAG 752 320 Cout_bar
FLAG 496 192 0
FLAG 496 416 K
SYMBOL voltage -48 640 R0
SYMATTR InstName V1
SYMATTR Value PULSE(5 0 0 1p 1p 1u 2u)
SYMBOL voltage 304 640 R0
SYMATTR InstName V2
SYMATTR Value PULSE(5 0 0 1p 1p 2u 4u)
SYMBOL voltage 640 640 R0
SYMATTR InstName V3
SYMATTR Value PULSE(5 0 0 1p 1p 4u 8u)
SYMBOL voltage 992 640 R0
SYMATTR InstName V4
SYMATTR Value 5
SYMBOL 74hct151 272 -64 R0
SYMATTR InstName U8
SYMBOL 74hct151 640 -64 R0
SYMATTR InstName U9
TEXT 896 472 Left 2 !.include 74hct.lib
TEXT 896 416 Left 2 !.tran 8u
