Version 4
SHEET 1 2492 1072
WIRE 96 -80 64 -80
WIRE 256 -64 208 -64
WIRE 448 -64 416 -64
WIRE 448 -32 416 -32
WIRE 448 0 416 0
WIRE 64 32 64 -80
WIRE 96 32 64 32
WIRE 448 32 416 32
WIRE 720 32 672 32
WIRE 256 48 208 48
WIRE 720 64 672 64
WIRE 64 96 64 32
WIRE 64 96 16 96
WIRE 448 96 416 96
WIRE 720 96 672 96
WIRE 448 128 416 128
WIRE 720 128 672 128
WIRE 96 144 80 144
WIRE 256 160 208 160
WIRE 448 160 416 160
WIRE 64 176 64 96
WIRE 96 176 64 176
WIRE 448 192 416 192
WIRE 448 256 416 256
WIRE 720 256 672 256
WIRE 256 272 208 272
WIRE 64 288 64 176
WIRE 96 288 64 288
WIRE 192 592 192 560
WIRE 544 592 544 560
WIRE 896 592 896 560
WIRE 1232 592 1232 560
WIRE 752 768 752 736
WIRE 880 768 880 736
FLAG 720 256 C0
FLAG 720 128 S4
FLAG 720 96 S3
FLAG 720 64 S2
FLAG 720 32 S1
FLAG 416 -64 A1
FLAG 416 -32 A2
FLAG 416 0 A3
FLAG 416 32 A4
FLAG 1232 672 0
FLAG 1232 560 A4
FLAG 192 560 A1
FLAG 192 672 0
FLAG 544 672 0
FLAG 896 672 0
FLAG 544 560 A2
FLAG 896 560 A3
FLAG 256 -64 B1
FLAG 256 48 B2
FLAG 256 160 B3
FLAG 256 272 B4
FLAG 96 -48 0
FLAG 96 64 0
FLAG 96 256 0
FLAG 80 144 N
FLAG 416 96 B1
FLAG 416 128 B2
FLAG 416 160 B3
FLAG 416 192 B4
FLAG 16 96 M
FLAG 416 256 M
FLAG 880 848 0
FLAG 880 736 M
FLAG 752 848 0
FLAG 752 736 N
SYMBOL 74hct283 560 -128 R0
SYMATTR InstName U1
SYMBOL 74hct86 144 208 R0
SYMATTR InstName U2
SYMBOL 74hct86 144 96 R0
SYMATTR InstName U3
SYMBOL 74hct86 144 -16 R0
SYMATTR InstName U4
SYMBOL 74hct86 144 -128 R0
SYMATTR InstName U5
SYMBOL voltage 1232 576 R0
SYMATTR InstName V4
SYMATTR Value PULSE(5 0 0 1p 1p 8u 16u)
SYMBOL voltage 192 576 R0
SYMATTR InstName V1
SYMATTR Value PULSE(5 0 0 1p 1p 1u 2u)
SYMBOL voltage 544 576 R0
SYMATTR InstName V2
SYMATTR Value PULSE(5 0 0 1p 1p 2u 4u)
SYMBOL voltage 896 576 R0
SYMATTR InstName V3
SYMATTR Value PULSE(5 0 0 1p 1p 4u 8u)
SYMBOL voltage 880 752 R0
SYMATTR InstName V6
SYMATTR Value 0
SYMBOL voltage 752 752 R0
SYMATTR InstName V5
SYMATTR Value 5
TEXT 1080 792 Left 2 !.include 74hct.lib
TEXT 544 792 Left 2 !.tran 16u
TEXT 224 -168 Left 3 ;4-bit Adder Subractor
TEXT 1048 24 Left 2 ;Saibaba Alapati\n2019A3PS0361H
