Version 4
SHEET 1 880 680
WIRE -240 0 -240 -16
WIRE -240 16 -240 0
WIRE 128 64 96 64
WIRE 144 64 128 64
WIRE 320 80 256 80
WIRE 128 96 96 96
WIRE 144 96 128 96
WIRE 320 128 320 80
WIRE 352 128 320 128
WIRE -240 144 -240 128
WIRE 128 144 96 144
WIRE 144 144 128 144
WIRE -240 160 -240 144
WIRE 352 160 256 160
WIRE 480 160 464 160
WIRE 512 160 480 160
WIRE 128 176 96 176
WIRE 144 176 128 176
WIRE 352 192 320 192
WIRE 128 224 96 224
WIRE 144 224 128 224
WIRE 320 240 320 192
WIRE 320 240 256 240
WIRE 128 256 96 256
WIRE 144 256 128 256
WIRE -240 288 -240 272
FLAG 128 64 A
FLAG 128 256 A
FLAG 128 96 B
FLAG 128 144 B
FLAG 128 176 C
FLAG 128 224 C
FLAG 480 160 F
FLAG -240 96 0
FLAG -240 0 A
FLAG -240 240 0
FLAG -240 144 B
FLAG -240 368 0
FLAG -240 272 C
SYMBOL 74hct00 192 16 R0
SYMATTR InstName U1
SYMBOL 74hct00 192 96 R0
SYMATTR InstName U2
SYMBOL 74hct00 192 176 R0
SYMATTR InstName U3
SYMBOL 74hct10 400 80 R0
SYMATTR InstName U4
SYMBOL voltage -240 0 R0
WINDOW 123 0 0 Left 0
WINDOW 39 0 0 Left 0
SYMATTR InstName V1
SYMATTR Value PULSE(5 0 0 1p 1p 1u 2u)
SYMBOL voltage -240 144 R0
WINDOW 123 0 0 Left 0
WINDOW 39 0 0 Left 0
SYMATTR InstName V2
SYMATTR Value PULSE(5 0 0 1p 1p 2u 4u)
SYMBOL voltage -240 272 R0
WINDOW 123 0 0 Left 0
WINDOW 39 0 0 Left 0
SYMATTR InstName V3
SYMATTR Value PULSE(5 0 0 1p 1p 4u 8u)
TEXT 456 72 Left 2 !.INCLUDE 74hct.lib
TEXT 480 232 Left 2 ;SAIBABA ALAPATI
TEXT -288 392 Left 2 !.tran 8u
